Version 4
SHEET 1 1732 848
WIRE -176 0 -208 0
WIRE -96 0 -176 0
WIRE -16 0 -96 0
WIRE 384 0 64 0
WIRE 1200 0 384 0
WIRE 1280 0 1200 0
WIRE 1360 0 1280 0
WIRE 1440 0 1360 0
WIRE 1200 16 1200 0
WIRE 1280 16 1280 0
WIRE 1360 16 1360 0
WIRE 1440 16 1440 0
WIRE -96 32 -96 0
WIRE 160 112 16 112
WIRE 1200 112 1200 80
WIRE 1200 112 1104 112
WIRE 1280 112 1280 80
WIRE 1280 112 1200 112
WIRE 1360 112 1360 80
WIRE 1360 112 1280 112
WIRE 1440 112 1440 80
WIRE 1440 112 1360 112
WIRE 1600 112 1440 112
WIRE 1664 112 1600 112
WIRE -96 144 -96 112
WIRE -208 160 -208 0
WIRE 16 160 16 112
WIRE 1664 160 1664 112
WIRE 160 240 160 112
WIRE 192 240 160 240
WIRE 416 240 384 240
WIRE 640 240 608 240
WIRE 864 240 832 240
WIRE 1104 240 1104 112
WIRE 1104 240 1056 240
WIRE -208 288 -208 240
WIRE 16 288 16 240
WIRE 16 288 -208 288
WIRE 1664 288 1664 240
WIRE 1664 288 1616 288
WIRE 1616 304 1616 288
WIRE -208 320 -208 288
WIRE 16 336 16 288
WIRE 192 336 160 336
WIRE 416 336 384 336
WIRE 640 336 608 336
WIRE 864 336 832 336
WIRE 1104 336 1056 336
WIRE 1664 336 1664 288
WIRE 16 464 16 416
WIRE 160 464 160 336
WIRE 160 464 16 464
WIRE 1104 464 1104 336
WIRE 1200 464 1104 464
WIRE 1280 464 1200 464
WIRE 1360 464 1280 464
WIRE 1440 464 1360 464
WIRE 1616 464 1440 464
WIRE 1664 464 1664 416
WIRE 1664 464 1616 464
WIRE 1200 512 1200 464
WIRE 1280 512 1280 464
WIRE 1360 512 1360 464
WIRE 1440 512 1440 464
WIRE 1200 608 1200 576
WIRE 1200 608 1104 608
WIRE 1280 608 1280 576
WIRE 1280 608 1200 608
WIRE 1360 608 1360 576
WIRE 1360 608 1280 608
WIRE 1440 608 1440 576
WIRE 1440 608 1360 608
FLAG -208 320 0
FLAG -176 0 Vinj
FLAG -96 144 0
FLAG 1600 112 Vout+
FLAG 1616 464 Vout-
FLAG 384 0 Vdamp
FLAG 1104 608 Vdamp
FLAG 1616 304 0
SYMBOL cap 1184 16 R0
SYMATTR InstName C1
SYMATTR Value 220µ
SYMATTR SpiceLine V=100 Irms=0.66 Rser=0.23 Rpar=1000Meg
SYMBOL res 1648 144 R0
SYMATTR InstName R3
SYMATTR Value 100
SYMBOL res 1648 320 R0
SYMATTR InstName R4
SYMATTR Value 100
SYMBOL voltage 16 144 R0
WINDOW 123 0 0 Left 0
WINDOW 39 0 0 Left 0
SYMATTR InstName V1
SYMATTR Value 30V
SYMBOL voltage 16 320 R0
WINDOW 123 0 0 Left 0
WINDOW 39 0 0 Left 0
SYMATTR InstName V2
SYMATTR Value 30V
SYMBOL voltage -208 144 R0
WINDOW 3 -75 -25 VRight 2
WINDOW 123 -47 -25 VRight 2
WINDOW 39 0 0 Left 0
SYMATTR Value SINE(0 1 100k)
SYMATTR Value2 AC 1
SYMATTR InstName V3
SYMBOL res -112 16 R0
SYMATTR InstName R5
SYMATTR Value 50R
SYMBOL res 80 -16 R90
WINDOW 0 0 56 VBottom 2
WINDOW 3 32 56 VTop 2
SYMATTR InstName R1
SYMATTR Value 5
SYMBOL WE-SL2 288 288 R0
SYMATTR InstName L2
SYMATTR SpiceModel SL2_9260_744220_4m7
SYMBOL WE-SL2 512 288 R0
SYMATTR InstName L1
SYMATTR SpiceModel SL2_9260_744220_4m7
SYMBOL WE-SL2 736 288 R0
SYMATTR InstName L3
SYMATTR SpiceModel SL2_9260_744220_4m7
SYMBOL WE-SL2 960 288 R0
SYMATTR InstName L4
SYMATTR SpiceModel SL2_9260_744220_4m7
SYMBOL cap 1264 16 R0
SYMATTR InstName C2
SYMATTR Value 220µ
SYMATTR SpiceLine V=100 Irms=0.66 Rser=0.23 Rpar=1000Meg
SYMBOL cap 1344 16 R0
SYMATTR InstName C3
SYMATTR Value 220µ
SYMATTR SpiceLine V=100 Irms=0.66 Rser=0.23 Rpar=1000Meg
SYMBOL cap 1424 16 R0
SYMATTR InstName C4
SYMATTR Value 220µ
SYMATTR SpiceLine V=100 Irms=0.66 Rser=0.23 Rpar=1000Meg
SYMBOL cap 1184 512 R0
SYMATTR InstName C5
SYMATTR Value 220µ
SYMATTR SpiceLine V=100 Irms=0.66 Rser=0.23 Rpar=1000Meg
SYMBOL cap 1264 512 R0
SYMATTR InstName C6
SYMATTR Value 220µ
SYMATTR SpiceLine V=100 Irms=0.66 Rser=0.23 Rpar=1000Meg
SYMBOL cap 1344 512 R0
SYMATTR InstName C7
SYMATTR Value 220µ
SYMATTR SpiceLine V=100 Irms=0.66 Rser=0.23 Rpar=1000Meg
SYMBOL cap 1424 512 R0
SYMATTR InstName C8
SYMATTR Value 220µ
SYMATTR SpiceLine V=100 Irms=0.66 Rser=0.23 Rpar=1000Meg
TEXT -296 800 Left 2 ;.tran 10m
TEXT -296 832 Left 2 !.ac dec 1000 0.1 100Meg
TEXT -448 488 Left 2 !.include WE-SL2.lib
